data/psse_cases/IEEE300_paper_aligned_v2.raw
0,   100.00, 33, 0, 1, 60.00     / PSS(R)E-33.4    FRI, AUG 28 2026   2:55
 00/00/01                      100.0  0    0
 0
     1,'1           ', 115.0000,1,   1,   1,   1,1.02710,   7.0745,1.10000,0.90000,1.10000,0.90000
     2,'2           ', 115.0000,1,   1,   1,   1,1.03413,   8.8306,1.10000,0.90000,1.10000,0.90000
     3,'3           ', 230.0000,1,   1,   1,   1,0.99403,   7.7738,1.10000,0.90000,1.10000,0.90000
     4,'4           ', 345.0000,1,   1,   1,   1,1.02761,   5.7631,1.10000,0.90000,1.10000,0.90000
     5,'5           ', 115.0000,1,   1,   1,   1,1.01761,   5.8058,1.10000,0.90000,1.10000,0.90000
     6,'6           ', 115.0000,1,   1,   1,   1,1.02966,   8.0926,1.10000,0.90000,1.10000,0.90000
     7,'7           ', 230.0000,1,   1,   1,   1,0.99051,   7.3354,1.10000,0.90000,1.10000,0.90000
     8,'8           ', 115.0000,1,   1,   1,   1,1.01381,   3.4212,1.10000,0.90000,1.10000,0.90000
     9,'9           ', 115.0000,1,   1,   1,   1,1.00222,   3.9475,1.10000,0.90000,1.10000,0.90000
    10,'10          ', 230.0000,1,   1,   1,   1,1.01881,   2.4386,1.10000,0.90000,1.10000,0.90000
    11,'11          ', 115.0000,1,   1,   1,   1,1.00483,   3.5350,1.10000,0.90000,1.10000,0.90000
    12,'12          ', 230.0000,1,   1,   1,   1,0.99531,   6.3340,1.10000,0.90000,1.10000,0.90000
    13,'13          ', 115.0000,1,   1,   1,   1,0.99646,   0.5162,1.10000,0.90000,1.10000,0.90000
    14,'14          ', 115.0000,1,   1,   1,   1,0.99702,  -3.9383,1.10000,0.90000,1.10000,0.90000
    15,'15          ', 115.0000,1,   1,   1,   1,1.03211,  -7.8460,1.10000,0.90000,1.10000,0.90000
    16,'16          ', 345.0000,1,   1,   1,   1,1.02860,  -1.8985,1.10000,0.90000,1.10000,0.90000
    17,'17          ', 115.0000,1,   1,   1,   1,1.06294, -12.3983,1.10000,0.90000,1.10000,0.90000
    19,'19          ', 230.0000,1,   1,   1,   1,0.97992,   2.1268,1.10000,0.90000,1.10000,0.90000
    20,'20          ', 115.0000,1,   1,   1,   1,0.99941,  -1.3946,1.10000,0.90000,1.10000,0.90000
    21,'21          ', 230.0000,1,   1,   1,   1,0.97346,   2.6983,1.10000,0.90000,1.10000,0.90000
    22,'22          ', 115.0000,1,   1,   1,   1,0.99493,  -0.9094,1.10000,0.90000,1.10000,0.90000
    23,'23          ', 115.0000,1,   1,   1,   1,1.04972,   5.0021,1.10000,0.90000,1.10000,0.90000
    24,'24          ', 230.0000,1,   1,   1,   1,1.00495,   7.0955,1.10000,0.90000,1.10000,0.90000
    25,'25          ', 115.0000,1,   1,   1,   1,1.02284,   2.5025,1.10000,0.90000,1.10000,0.90000
    26,'26          ', 115.0000,1,   1,   1,   1,0.99782,  -0.6728,1.10000,0.90000,1.10000,0.90000
    27,'27          ', 115.0000,1,   1,   1,   1,0.97390,  -3.8387,1.10000,0.90000,1.10000,0.90000
    33,'33          ', 115.0000,1,   1,   1,   1,1.02338, -11.6222,1.10000,0.90000,1.10000,0.90000
    34,'34          ', 345.0000,1,   1,   1,   1,1.03979,  -7.5164,1.10000,0.90000,1.10000,0.90000
    35,'35          ', 115.0000,1,   1,   1,   1,0.97554, -25.6214,1.10000,0.90000,1.10000,0.90000
    36,'36          ', 230.0000,1,   1,   1,   1,1.00089, -22.4843,1.10000,0.90000,1.10000,0.90000
    37,'37          ', 115.0000,1,   1,   1,   1,1.01909, -10.7852,1.10000,0.90000,1.10000,0.90000
    38,'38          ', 115.0000,1,   1,   1,   1,1.01920, -12.1694,1.10000,0.90000,1.10000,0.90000
    39,'39          ', 345.0000,1,   1,   1,   1,1.05218,  -5.3838,1.10000,0.90000,1.10000,0.90000
    40,'40          ', 115.0000,1,   1,   1,   1,1.02056, -12.3633,1.10000,0.90000,1.10000,0.90000
    41,'41          ', 115.0000,1,   1,   1,   1,1.02805, -10.0375,1.10000,0.90000,1.10000,0.90000
    42,'42          ', 345.0000,1,   1,   1,   1,1.04323,  -7.0208,1.10000,0.90000,1.10000,0.90000
    43,'43          ', 115.0000,1,   1,   1,   1,1.00014, -16.6262,1.10000,0.90000,1.10000,0.90000
    44,'44          ', 115.0000,1,   1,   1,   1,1.00863, -17.4453,1.10000,0.90000,1.10000,0.90000
    45,'45          ', 230.0000,1,   1,   1,   1,1.02186, -14.7533,1.10000,0.90000,1.10000,0.90000
    46,'46          ', 345.0000,1,   1,   1,   1,1.03311, -11.5281,1.10000,0.90000,1.10000,0.90000
    47,'47          ', 115.0000,1,   1,   1,   1,0.97784, -23.0835,1.10000,0.90000,1.10000,0.90000
    48,'48          ', 115.0000,1,   1,   1,   1,1.00136, -15.6880,1.10000,0.90000,1.10000,0.90000
    49,'49          ', 115.0000,1,   1,   1,   1,1.04730,  -2.4743,1.10000,0.90000,1.10000,0.90000
    51,'51          ', 115.0000,1,   1,   1,   1,1.02457,  -7.8325,1.10000,0.90000,1.10000,0.90000
    52,'52          ', 115.0000,1,   1,   1,   1,0.99759, -11.8542,1.10000,0.90000,1.10000,0.90000
    53,'53          ', 115.0000,1,   1,   1,   1,0.99565, -17.5055,1.10000,0.90000,1.10000,0.90000
    54,'54          ', 115.0000,1,   1,   1,   1,1.00510, -16.2666,1.10000,0.90000,1.10000,0.90000
    55,'55          ', 115.0000,1,   1,   1,   1,1.01537, -12.4328,1.10000,0.90000,1.10000,0.90000
    57,'57          ', 115.0000,1,   1,   1,   1,1.03379,  -9.0225,1.10000,0.90000,1.10000,0.90000
    58,'58          ', 115.0000,1,   1,   1,   1,0.99148,  -7.3618,1.10000,0.90000,1.10000,0.90000
    59,'59          ', 115.0000,1,   1,   1,   1,0.97860,  -6.7648,1.10000,0.90000,1.10000,0.90000
    60,'60          ', 230.0000,1,   1,   1,   1,1.02654, -10.2361,1.10000,0.90000,1.10000,0.90000
    61,'61          ', 115.0000,1,   1,   1,   1,0.99056,  -4.9963,1.10000,0.90000,1.10000,0.90000
    62,'62          ', 230.0000,1,   1,   1,   1,1.01681,  -2.8350,1.10000,0.90000,1.10000,0.90000
    63,'63          ', 115.0000,1,   1,   1,   1,0.95830, -19.1991,1.10000,0.90000,1.10000,0.90000
    64,'64          ', 230.0000,1,   1,   1,   1,0.94839, -14.5861,1.10000,0.90000,1.10000,0.90000
    69,'69          ', 115.0000,1,   1,   1,   1,0.96278, -25.5393,1.10000,0.90000,1.10000,0.90000
    70,'70          ', 115.0000,1,   1,   1,   1,0.95118, -35.0658,1.10000,0.90000,1.10000,0.90000
    71,'71          ', 115.0000,1,   1,   1,   1,0.97925, -29.7851,1.10000,0.90000,1.10000,0.90000
    72,'72          ', 115.0000,1,   1,   1,   1,0.96948, -27.3776,1.10000,0.90000,1.10000,0.90000
    73,'73          ', 115.0000,1,   1,   1,   1,0.97742, -25.6781,1.10000,0.90000,1.10000,0.90000
    74,'74          ', 230.0000,1,   1,   1,   1,0.99639, -21.9216,1.10000,0.90000,1.10000,0.90000
    76,'76          ', 115.0000,1,   1,   1,   1,0.96312, -26.4422,1.10000,0.90000,1.10000,0.90000
    77,'77          ', 115.0000,1,   1,   1,   1,0.98367, -24.8388,1.10000,0.90000,1.10000,0.90000
    78,'78          ', 115.0000,1,   1,   1,   1,0.98990, -23.9483,1.10000,0.90000,1.10000,0.90000
    79,'79          ', 115.0000,1,   1,   1,   1,0.98188, -24.8722,1.10000,0.90000,1.10000,0.90000
    80,'80          ', 115.0000,1,   1,   1,   1,0.98710, -24.8590,1.10000,0.90000,1.10000,0.90000
    81,'81          ', 345.0000,1,   1,   1,   1,1.03340, -18.7457,1.10000,0.90000,1.10000,0.90000
    84,'84          ', 115.0000,1,   1,   1,   1,1.02499, -17.0605,1.10000,0.90000,1.10000,0.90000
    85,'85          ', 230.0000,1,   1,   1,   1,0.98673, -17.1045,1.10000,0.90000,1.10000,0.90000
    86,'86          ', 230.0000,1,   1,   1,   1,0.99014, -13.5413,1.10000,0.90000,1.10000,0.90000
    87,'87          ', 230.0000,1,   1,   1,   1,0.99047,  -6.9530,1.10000,0.90000,1.10000,0.90000
    88,'88          ', 230.0000,1,   1,   1,   1,1.01483, -20.8452,1.10000,0.90000,1.10000,0.90000
    89,'89          ', 115.0000,1,   1,   1,   1,1.03086, -10.5266,1.10000,0.90000,1.10000,0.90000
    90,'90          ', 115.0000,1,   1,   1,   1,1.02637, -10.7133,1.10000,0.90000,1.10000,0.90000
    91,'91          ', 115.0000,1,   1,   1,   1,1.05200,  -8.7801,1.10000,0.90000,1.10000,0.90000
    92,'92          ', 115.0000,1,   1,   1,   1,1.05200,  -5.6854,1.10000,0.90000,1.10000,0.90000
    94,'94          ', 115.0000,1,   1,   1,   1,0.99196,  -8.6447,1.10000,0.90000,1.10000,0.90000
    97,'97          ', 115.0000,1,   1,   1,   1,1.01803, -12.6269,1.10000,0.90000,1.10000,0.90000
    98,'98          ', 115.0000,1,   1,   1,   1,1.00000, -13.9942,1.10000,0.90000,1.10000,0.90000
    99,'99          ', 115.0000,1,   1,   1,   1,0.98933, -19.7451,1.10000,0.90000,1.10000,0.90000
   100,'100         ', 115.0000,1,   1,   1,   1,1.00583, -13.8322,1.10000,0.90000,1.10000,0.90000
   102,'102         ', 115.0000,1,   1,   1,   1,1.00048, -14.6130,1.10000,0.90000,1.10000,0.90000
   103,'103         ', 115.0000,1,   1,   1,   1,1.02857, -11.5318,1.10000,0.90000,1.10000,0.90000
   104,'104         ', 115.0000,1,   1,   1,   1,0.99555, -16.7393,1.10000,0.90000,1.10000,0.90000
   105,'105         ', 115.0000,1,   1,   1,   1,1.02206, -12.4384,1.10000,0.90000,1.10000,0.90000
   107,'107         ', 115.0000,1,   1,   1,   1,1.00920, -15.5643,1.10000,0.90000,1.10000,0.90000
   108,'108         ', 115.0000,1,   1,   1,   1,0.99000, -19.7335,1.10000,0.90000,1.10000,0.90000
   109,'109         ', 115.0000,1,   1,   1,   1,0.97484, -25.6945,1.10000,0.90000,1.10000,0.90000
   110,'110         ', 115.0000,1,   1,   1,   1,0.97283, -24.2794,1.10000,0.90000,1.10000,0.90000
   112,'112         ', 115.0000,1,   1,   1,   1,0.97246, -28.3569,1.10000,0.90000,1.10000,0.90000
   113,'113         ', 115.0000,1,   1,   1,   1,0.97010, -25.2121,1.10000,0.90000,1.10000,0.90000
   114,'114         ', 115.0000,1,   1,   1,   1,0.97462, -28.2625,1.10000,0.90000,1.10000,0.90000
   115,'115         ', 115.0000,1,   2,   2,   1,0.92393,  11.8942,1.10000,0.90000,1.10000,0.90000
   116,'116         ', 115.0000,1,   2,   2,   1,0.99499,  19.2719,1.10000,0.90000,1.10000,0.90000
   117,'117         ', 115.0000,1,   2,   2,   1,0.91482,  25.2033,1.10000,0.90000,1.10000,0.90000
   118,'118         ', 115.0000,1,   2,   2,   1,0.90964,  26.3307,1.10000,0.90000,1.10000,0.90000
   119,'119         ', 115.0000,1,   2,   2,   1,1.04338,  40.9575,1.10000,0.90000,1.10000,0.90000
   120,'120         ', 115.0000,1,   2,   2,   1,1.02118,  37.6590,1.10000,0.90000,1.10000,0.90000
   121,'121         ', 115.0000,1,   2,   2,   1,0.85252,  15.2044,1.10000,0.90000,1.10000,0.90000
   122,'122         ', 115.0000,1,   2,   2,   1,0.90213,   9.6026,1.10000,0.90000,1.10000,0.90000
   123,'123         ', 115.0000,1,   2,   2,   1,0.92955,   4.7713,1.10000,0.90000,1.10000,0.90000
   124,'124         ', 115.0000,1,   2,   2,   1,0.97599,  16.0141,1.10000,0.90000,1.10000,0.90000
   125,'125         ', 115.0000,1,   2,   2,   1,0.94966,  -5.6190,1.10000,0.90000,1.10000,0.90000
   126,'126         ', 115.0000,1,   2,   2,   1,0.94745,  -0.9764,1.10000,0.90000,1.10000,0.90000
   127,'127         ', 230.0000,1,   2,   2,   1,0.97799,  -6.5523,1.10000,0.90000,1.10000,0.90000
   128,'128         ', 230.0000,1,   2,   2,   1,0.99100,  -4.5293,1.10000,0.90000,1.10000,0.90000
   129,'129         ', 230.0000,1,   2,   2,   1,0.98894,  -3.6771,1.10000,0.90000,1.10000,0.90000
   130,'130         ', 230.0000,1,   2,   2,   1,1.01310,   6.9373,1.10000,0.90000,1.10000,0.90000
   131,'131         ', 230.0000,1,   2,   2,   1,0.98257,   7.2720,1.10000,0.90000,1.10000,0.90000
   132,'132         ', 230.0000,1,   2,   2,   1,0.99748,   5.2150,1.10000,0.90000,1.10000,0.90000
   133,'133         ', 230.0000,1,   2,   2,   1,0.99214,  -6.7635,1.10000,0.90000,1.10000,0.90000
   134,'134         ', 230.0000,1,   2,   2,   1,1.01203,  -5.7536,1.10000,0.90000,1.10000,0.90000
   135,'135         ', 230.0000,1,   2,   2,   1,1.01421,  -5.8900,1.10000,0.90000,1.10000,0.90000
   136,'136         ', 230.0000,1,   2,   2,   1,1.04632,  -0.5327,1.10000,0.90000,1.10000,0.90000
   137,'137         ', 230.0000,1,   2,   2,   1,1.04275,  -6.7979,1.10000,0.90000,1.10000,0.90000
   138,'138         ', 230.0000,1,   2,   2,   1,1.05162, -16.2495,1.10000,0.90000,1.10000,0.90000
   139,'139         ', 115.0000,1,   2,   2,   1,1.01041,  -8.7040,1.10000,0.90000,1.10000,0.90000
   140,'140         ', 230.0000,1,   2,   2,   1,1.03998,  -8.5843,1.10000,0.90000,1.10000,0.90000
   141,'141         ', 230.0000,1,   2,   2,   1,1.05099,  -4.8795,1.10000,0.90000,1.10000,0.90000
   142,'142         ', 230.0000,1,   2,   2,   1,1.01338,  -6.9240,1.10000,0.90000,1.10000,0.90000
   143,'143         ', 230.0000,1,   2,   2,   1,1.04349,   0.4172,1.10000,0.90000,1.10000,0.90000
   144,'144         ', 230.0000,1,   2,   2,   1,1.01665,  -2.5792,1.10000,0.90000,1.10000,0.90000
   145,'145         ', 230.0000,1,   2,   2,   1,1.00763,  -4.2482,1.10000,0.90000,1.10000,0.90000
   146,'146         ', 230.0000,1,   2,   2,   1,1.05242,  -0.1341,1.10000,0.90000,1.10000,0.90000
   147,'147         ', 230.0000,1,   2,   2,   1,1.05280,   3.8216,1.10000,0.90000,1.10000,0.90000
   148,'148         ', 230.0000,1,   2,   2,   1,1.05770,  -3.4274,1.10000,0.90000,1.10000,0.90000
   149,'149         ', 230.0000,1,   2,   2,   1,1.07319,   1.4409,1.10000,0.90000,1.10000,0.90000
   150,'150         ', 230.0000,1,   2,   2,   1,0.98311,   7.5572,1.10000,0.90000,1.10000,0.90000
   151,'151         ', 230.0000,1,   2,   2,   1,0.99884,   5.6182,1.10000,0.90000,1.10000,0.90000
   152,'152         ', 230.0000,1,   2,   2,   1,1.05350,   6.7907,1.10000,0.90000,1.10000,0.90000
   153,'153         ', 230.0000,1,   2,   2,   1,1.04350,   7.0719,1.10000,0.90000,1.10000,0.90000
   154,'154         ', 115.0000,1,   2,   2,   1,0.96518,  -5.5963,1.10000,0.90000,1.10000,0.90000
   155,'155         ', 230.0000,1,   2,   2,   1,1.01431,   2.5968,1.10000,0.90000,1.10000,0.90000
   156,'156         ', 115.0000,1,   2,   2,   1,0.95970,   1.0089,1.10000,0.90000,1.10000,0.90000
   157,'157         ', 230.0000,1,   2,   2,   1,0.91803,  11.3336,1.10000,0.90000,1.10000,0.90000
   158,'158         ', 230.0000,1,   2,   2,   1,0.92755,  10.9040,1.10000,0.90000,1.10000,0.90000
   159,'159         ', 230.0000,1,   2,   2,   1,0.90709,  15.6171,1.10000,0.90000,1.10000,0.90000
   160,'160         ', 230.0000,1,   2,   2,   1,0.94485,  13.6709,1.10000,0.90000,1.10000,0.90000
   161,'161         ', 230.0000,1,   2,   2,   1,1.03471,   5.2045,1.10000,0.90000,1.10000,0.90000
   162,'162         ', 230.0000,1,   2,   2,   1,0.98927,  14.1901,1.10000,0.90000,1.10000,0.90000
   163,'163         ', 230.0000,1,   2,   2,   1,1.03508,  -2.0366,1.10000,0.90000,1.10000,0.90000
   164,'164         ', 230.0000,1,   2,   2,   1,0.98009,   5.2990,1.10000,0.90000,1.10000,0.90000
   165,'165         ', 230.0000,1,   2,   2,   1,0.99881,  22.0245,1.10000,0.90000,1.10000,0.90000
   166,'166         ', 230.0000,1,   2,   2,   1,0.99647,  25.9442,1.10000,0.90000,1.10000,0.90000
   167,'167         ', 230.0000,1,   2,   2,   1,0.95733,  -6.2510,1.10000,0.90000,1.10000,0.90000
   168,'168         ', 230.0000,1,   2,   2,   1,0.99102,  -4.5550,1.10000,0.90000,1.10000,0.90000
   169,'169         ', 230.0000,1,   2,   2,   1,0.97283,  -6.1204,1.10000,0.90000,1.10000,0.90000
   170,'170         ', 115.0000,1,   2,   2,   1,0.92256,   1.8656,1.10000,0.90000,1.10000,0.90000
   171,'171         ', 115.0000,1,   2,   2,   1,0.97277, -11.3301,1.10000,0.90000,1.10000,0.90000
   172,'172         ', 115.0000,1,   2,   2,   1,1.02405, -11.1527,1.10000,0.90000,1.10000,0.90000
   173,'173         ', 115.0000,1,   2,   2,   1,0.98295, -17.3175,1.10000,0.90000,1.10000,0.90000
   174,'174         ', 115.0000,1,   2,   2,   1,1.06207,  -7.5785,1.10000,0.90000,1.10000,0.90000
   175,'175         ', 115.0000,1,   2,   2,   1,0.97287, -11.4041,1.10000,0.90000,1.10000,0.90000
   176,'176         ', 115.0000,1,   2,   2,   1,1.05220,   0.4879,1.10000,0.90000,1.10000,0.90000
   177,'177         ', 115.0000,1,   2,   2,   1,1.00760,  -3.4888,1.10000,0.90000,1.10000,0.90000
   178,'178         ', 115.0000,1,   2,   2,   1,0.93929, -10.5974,1.10000,0.90000,1.10000,0.90000
   179,'179         ', 115.0000,1,   2,   2,   1,0.96927, -13.3707,1.10000,0.90000,1.10000,0.90000
   180,'180         ', 115.0000,1,   2,   2,   1,0.97882,  -7.1628,1.10000,0.90000,1.10000,0.90000
   181,'181         ', 230.0000,1,   2,   2,   1,1.04680,  -7.3190,1.10000,0.90000,1.10000,0.90000
   182,'182         ', 230.0000,1,   2,   2,   1,1.04224,  -9.3381,1.10000,0.90000,1.10000,0.90000
   183,'183         ', 115.0000,1,   2,   2,   1,0.97143,   3.6643,1.10000,0.90000,1.10000,0.90000
   184,'184         ', 230.0000,1,   2,   2,   1,1.03463,  -4.5751,1.10000,0.90000,1.10000,0.90000
   185,'185         ', 230.0000,1,   2,   2,   1,1.05220,  -2.0733,1.10000,0.90000,1.10000,0.90000
   186,'186         ', 230.0000,1,   2,   2,   1,1.06497,  -3.5523,1.10000,0.90000,1.10000,0.90000
   187,'187         ', 230.0000,1,   2,   2,   1,1.06496,  -4.5732,1.10000,0.90000,1.10000,0.90000
   188,'188         ', 230.0000,1,   2,   2,   1,1.04920,  -6.6594,1.10000,0.90000,1.10000,0.90000
   189,'189         ',  66.0000,1,   3,   3,   1,0.99743, -25.6945,1.10000,0.90000,1.10000,0.90000
   190,'190         ', 345.0000,1,   3,   3,   1,1.05510, -20.4936,1.10000,0.90000,1.10000,0.90000
   191,'191         ', 230.0000,1,   3,   3,   1,1.04343,  12.3448,1.10000,0.90000,1.10000,0.90000
   192,'192         ', 230.0000,1,   3,   3,   1,0.93796, -11.0731,1.10000,0.90000,1.10000,0.90000
   193,'192         ',  66.0000,1,   3,   3,   1,0.98939, -25.9360,1.10000,0.90000,1.10000,0.90000
   194,'194         ', 345.0000,1,   3,   3,   1,1.04840, -19.0780,1.10000,0.90000,1.10000,0.90000
   195,'195         ', 345.0000,1,   3,   3,   1,1.03536, -20.6562,1.10000,0.90000,1.10000,0.90000
   196,'196         ', 115.0000,1,   3,   3,   1,0.96951, -25.1814,1.10000,0.90000,1.10000,0.90000
   197,'197         ', 115.0000,1,   3,   3,   1,0.99065, -23.5839,1.10000,0.90000,1.10000,0.90000
   198,'198         ', 115.0000,1,   3,   3,   1,1.01499, -20.4504,1.10000,0.90000,1.10000,0.90000
   199,'199         ', 115.0000,1,   3,   3,   1,0.95284, -25.9095,1.10000,0.90000,1.10000,0.90000
   200,'200         ', 115.0000,1,   3,   3,   1,0.95508, -25.7991,1.10000,0.90000,1.10000,0.90000
   201,'201         ',  66.0000,1,   1,   1,   1,0.96878, -27.3603,1.10000,0.90000,1.10000,0.90000
   202,'202         ',  66.0000,1,   3,   3,   1,0.99074, -25.2008,1.10000,0.90000,1.10000,0.90000
   203,'203         ', 115.0000,1,   3,   3,   1,1.00327, -22.2188,1.10000,0.90000,1.10000,0.90000
   204,'204         ',  66.0000,1,   3,   3,   1,0.97122, -25.5461,1.10000,0.90000,1.10000,0.90000
   205,'205         ',  66.0000,1,   3,   3,   1,0.98340, -25.9055,1.10000,0.90000,1.10000,0.90000
   206,'206         ',  66.0000,1,   3,   3,   1,0.99920, -27.1689,1.10000,0.90000,1.10000,0.90000
   207,'207         ',  66.0000,1,   1,   1,   1,1.01397, -27.1652,1.10000,0.90000,1.10000,0.90000
   208,'208         ',  66.0000,1,   3,   3,   1,0.99267, -26.1150,1.10000,0.90000,1.10000,0.90000
   209,'209         ',  66.0000,1,   3,   3,   1,0.99983, -25.5106,1.10000,0.90000,1.10000,0.90000
   210,'210         ', 115.0000,1,   3,   3,   1,0.97881, -24.0836,1.10000,0.90000,1.10000,0.90000
   211,'211         ', 115.0000,1,   3,   3,   1,1.00153, -23.1840,1.10000,0.90000,1.10000,0.90000
   212,'212         ', 138.0000,1,   3,   3,   1,1.01301, -22.3766,1.10000,0.90000,1.10000,0.90000
   213,'213         ',  16.5000,1,   3,   3,   1,1.01000, -11.5448,1.10000,0.90000,1.10000,0.90000
   214,'214         ', 138.0000,1,   3,   3,   1,0.99184, -17.4037,1.10000,0.90000,1.10000,0.90000
   215,'215         ', 138.0000,1,   3,   3,   1,0.98655, -20.1043,1.10000,0.90000,1.10000,0.90000
   216,'216         ', 138.0000,1,   3,   3,   1,0.97500, -22.4008,1.10000,0.90000,1.10000,0.90000
   217,'217         ', 138.0000,1,   3,   3,   1,1.02127, -22.0703,1.10000,0.90000,1.10000,0.90000
   218,'218         ', 138.0000,1,   3,   3,   1,1.00724, -22.4996,1.10000,0.90000,1.10000,0.90000
...
0 / END OF BUS DATA, BEGIN LOAD DATA
     1,'1 ',1,   1,   1,    90.000,    49.000,     0.000,     0.000,     0.000,     0.000,   1,1,0
     2,'1 ',1,   1,   1,    56.000,    15.000,     0.000,     0.000,     0.000,     0.000,   1,1,0
     3,'1 ',1,   1,   1,    20.000,     0.000,     0.000,     0.000,     0.000,     0.000,   1,1,0
     5,'1 ',1,   1,   1,   353.000,   130.000,     0.000,     0.000,     0.000,     0.000,   1,1,0
     6,'1 ',1,   1,   1,   120.000,    41.000,     0.000,     0.000,     0.000,     0.000,   1,1,0
     8,'1 ',1,   1,   1,    58.000,    14.000,     0.000,     0.000,     0.000,     0.000,   1,1,0
     9,'1 ',1,   1,   1,    96.000,    43.000,     0.000,     0.000,     0.000,     0.000,   1,1,0
    10,'1 ',1,   1,   1,   148.000,    33.000,     0.000,     0.000,     0.000,     0.000,   1,1,0
    11,'1 ',1,   1,   1,    83.000,    21.000,     0.000,     0.000,     0.000,     0.000,   1,1,0
    13,'1 ',1,   1,   1,    58.000,    10.000,     0.000,     0.000,     0.000,     0.000,   1,1,0
    14,'1 ',1,   1,   1,   160.000,    60.000,     0.000,     0.000,     0.000,     0.000,   1,1,0
    15,'1 ',1,   1,   1,   126.700,    23.000,     0.000,     0.000,     0.000,     0.000,   1,1,0
    17,'1 ',1,   1,   1,   561.000,   220.000,     0.000,     0.000,     0.000,     0.000,   1,1,0
    20,'1 ',1,   1,   1,   595.000,   120.000,     0.000,     0.000,     0.000,     0.000,   1,1,0
    21,'1 ',1,   1,   1,    77.000,     1.000,     0.000,     0.000,     0.000,     0.000,   1,1,0
    22,'1 ',1,   1,   1,    81.000,    23.000,     0.000,     0.000,     0.000,     0.000,   1,1,0
    23,'1 ',1,   1,   1,    21.000,     7.000,     0.000,     0.000,     0.000,     0.000,   1,1,0
    25,'1 ',1,   1,   1,    45.000,    12.000,     0.000,     0.000,     0.000,     0.000,   1,1,0
    26,'1 ',1,   1,   1,    28.000,     9.000,     0.000,     0.000,     0.000,     0.000,   1,1,0
    27,'1 ',1,   1,   1,    69.000,    13.000,     0.000,     0.000,     0.000,     0.000,   1,1,0
    33,'1 ',1,   1,   1,    55.000,     6.000,     0.000,     0.000,     0.000,     0.000,   1,1,0
    37,'1 ',1,   1,   1,    85.000,    32.000,     0.000,     0.000,     0.000,     0.000,   1,1,0
    38,'1 ',1,   1,   1,   155.000,    18.000,     0.000,     0.000,     0.000,     0.000,   1,1,0
    40,'1 ',1,   1,   1,    46.000,   -21.000,     0.000,     0.000,     0.000,     0.000,   1,1,0
    41,'1 ',1,   1,   1,    86.000,     0.000,     0.000,     0.000,     0.000,     0.000,   1,1,0
    43,'1 ',1,   1,   1,    39.000,     9.000,     0.000,     0.000,     0.000,     0.000,   1,1,0
    44,'1 ',1,   1,   1,   195.000,    29.000,     0.000,     0.000,     0.000,     0.000,   1,1,0
    47,'1 ',1,   1,   1,    58.000,    11.800,     0.000,     0.000,     0.000,     0.000,   1,1,0
    48,'1 ',1,   1,   1,    41.000,    19.000,     0.000,     0.000,     0.000,     0.000,   1,1,0
    49,'1 ',1,   1,   1,    92.000,    26.000,     0.000,     0.000,     0.000,     0.000,   1,1,0
    51,'1 ',1,   1,   1,    -5.000,     5.000,     0.000,     0.000,     0.000,     0.000,   1,1,0
    52,'1 ',1,   1,   1,    61.000,    28.000,     0.000,     0.000,     0.000,     0.000,   1,1,0
    53,'1 ',1,   1,   1,    69.000,     3.000,     0.000,     0.000,     0.000,     0.000,   1,1,0
    54,'1 ',1,   1,   1,    10.000,     1.000,     0.000,     0.000,     0.000,     0.000,   1,1,0
    55,'1 ',1,   1,   1,    22.000,    10.000,     0.000,     0.000,     0.000,     0.000,   1,1,0
    57,'1 ',1,   1,   1,    98.000,    20.000,     0.000,     0.000,     0.000,     0.000,   1,1,0
    58,'1 ',1,   1,   1,    14.000,     1.000,     0.000,     0.000,     0.000,     0.000,   1,1,0
    59,'1 ',1,   1,   1,   218.000,   106.000,     0.000,     0.000,     0.000,     0.000,   1,1,0
    61,'1 ',1,   1,   1,   227.000,   110.000,     0.000,     0.000,     0.000,     0.000,   1,1,0
    63,'1 ',1,   1,   1,    70.000,    30.000,     0.000,     0.000,     0.000,     0.000,   1,1,0
    70,'1 ',1,   1,   1,    56.000,    20.000,     0.000,     0.000,     0.000,     0.000,   1,1,0
    71,'1 ',1,   1,   1,   116.000,    38.000,     0.000,     0.000,     0.000,     0.000,   1,1,0
    72,'1 ',1,   1,   1,    57.000,    19.000,     0.000,     0.000,     0.000,     0.000,   1,1,0
    73,'1 ',1,   1,   1,   224.000,    71.000,     0.000,     0.000,     0.000,     0.000,   1,1,0
    76,'1 ',1,   1,   1,   208.000,   107.000,     0.000,     0.000,     0.000,     0.000,   1,1,0
    77,'1 ',1,   1,   1,    74.000,    28.000,     0.000,     0.000,     0.000,     0.000,   1,1,0
    79,'1 ',1,   1,   1,    48.000,    14.000,     0.000,     0.000,     0.000,     0.000,   1,1,0
    80,'1 ',1,   1,   1,    28.000,     7.000,     0.000,     0.000,     0.000,     0.000,   1,1,0
    84,'1 ',1,   1,   1,    37.000,    13.000,     0.000,     0.000,     0.000,     0.000,   1,1,0
    89,'1 ',1,   1,   1,    44.200,     0.000,     0.000,     0.000,     0.000,     0.000,   1,1,0
    90,'1 ',1,   1,   1,    66.000,     0.000,     0.000,     0.000,     0.000,     0.000,   1,1,0
    91,'1 ',1,   1,   1,    17.400,     0.000,     0.000,     0.000,     0.000,     0.000,   1,1,0
    92,'1 ',1,   1,   1,    15.800,     0.000,     0.000,     0.000,     0.000,     0.000,   1,1,0
    94,'1 ',1,   1,   1,    60.300,     0.000,     0.000,     0.000,     0.000,     0.000,   1,1,0
    97,'1 ',1,   1,   1,    39.900,     0.000,     0.000,     0.000,     0.000,     0.000,   1,1,0
    98,'1 ',1,   1,   1,    66.700,     0.000,     0.000,     0.000,     0.000,     0.000,   1,1,0
    99,'1 ',1,   1,   1,    83.500,     0.000,     0.000,     0.000,     0.000,     0.000,   1,1,0
   102,'1 ',1,   1,   1,    77.800,     0.000,     0.000,     0.000,     0.000,     0.000,   1,1,0
   103,'1 ',1,   1,   1,    32.000,     0.000,     0.000,     0.000,     0.000,     0.000,   1,1,0
   104,'1 ',1,   1,   1,     8.600,     0.000,     0.000,     0.000,     0.000,     0.000,   1,1,0
   105,'1 ',1,   1,   1,    49.600,     0.000,     0.000,     0.000,     0.000,     0.000,   1,1,0
   107,'1 ',1,   1,   1,     4.600,     0.000,     0.000,     0.000,     0.000,     0.000,   1,1,0
   108,'1 ',1,   1,   1,   112.100,     0.000,     0.000,     0.000,     0.000,     0.000,   1,1,0
   109,'1 ',1,   1,   1,    30.700,     0.000,     0.000,     0.000,     0.000,     0.000,   1,1,0
   110,'1 ',1,   1,   1,    63.000,     0.000,     0.000,     0.000,     0.000,     0.000,   1,1,0
   112,'1 ',1,   1,   1,    19.600,     0.000,     0.000,     0.000,     0.000,     0.000,   1,1,0
   113,'1 ',1,   1,   1,    26.200,     0.000,     0.000,     0.000,     0.000,     0.000,   1,1,0
   114,'1 ',1,   1,   1,    18.200,     0.000,     0.000,     0.000,     0.000,     0.000,   1,1,0
   118,'1 ',1,   2,   2,    14.100,   650.000,     0.000,     0.000,     0.000,     0.000,   1,1,0
   119,'1 ',1,   2,   2,   100.300,    34.400,     0.000,     0.000,     0.000,     0.000,   1,1,0
   120,'1 ',1,   2,   2,  -100.000,   -40.200,     0.000,     0.000,     0.000,     0.000,   1,1,0
   121,'1 ',1,   2,   2,   535.000,    55.000,     0.000,     0.000,     0.000,     0.000,   1,1,0
   122,'1 ',1,   2,   2,   229.100,    11.800,     0.000,     0.000,     0.000,     0.000,   1,1,0
   123,'1 ',1,   2,   2,    78.000,     1.400,     0.000,     0.000,     0.000,     0.000,   1,1,0
   124,'1 ',1,   2,   2,   276.400,    59.300,     0.000,     0.000,     0.000,     0.000,   1,1,0
   125,'1 ',1,   2,   2,   514.800,    82.700,     0.000,     0.000,     0.000,     0.000,   1,1,0
   126,'1 ',1,   2,   2,    57.900,     5.100,     0.000,     0.000,     0.000,     0.000,   1,1,0
   127,'1 ',1,   2,   2,   380.800,    37.000,     0.000,     0.000,     0.000,     0.000,   1,1,0
   135,'1 ',1,   2,   2,   169.200,    41.600,     0.000,     0.000,     0.000,     0.000,   1,1,0
   136,'1 ',1,   2,   2,    55.200,    18.200,     0.000,     0.000,     0.000,     0.000,   1,1,0
   137,'1 ',1,   2,   2,   273.600,    99.800,     0.000,     0.000,     0.000,     0.000,   1,1,0
   138,'1 ',1,   2,   2,   826.700,   135.200,     0.000,     0.000,     0.000,     0.000,   1,1,0
   139,'1 ',1,   2,   2,   595.000,    83.300,     0.000,     0.000,     0.000,     0.000,   1,1,0
   140,'1 ',1,   2,   2,   387.700,   114.700,     0.000,     0.000,     0.000,     0.000,   1,1,0
   141,'1 ',1,   2,   2,   145.000,    58.000,     0.000,     0.000,     0.000,     0.000,   1,1,0
   142,'1 ',1,   2,   2,    56.500,    24.500,     0.000,     0.000,     0.000,     0.000,   1,1,0
   143,'1 ',1,   2,   2,    89.500,    35.500,     0.000,     0.000,     0.000,     0.000,   1,1,0
   145,'1 ',1,   2,   2,    24.000,    14.000,     0.000,     0.000,     0.000,     0.000,   1,1,0
   148,'1 ',1,   2,   2,    63.000,    25.000,     0.000,     0.000,     0.000,     0.000,   1,1,0
   152,'1 ',1,   2,   2,    17.000,     9.000,     0.000,     0.000,     0.000,     0.000,   1,1,0
   154,'1 ',1,   2,   2,    70.000,     5.000,     0.000,     0.000,     0.000,     0.000,   1,1,0
   155,'1 ',1,   2,   2,   200.000,    50.000,     0.000,     0.000,     0.000,     0.000,   1,1,0
   156,'1 ',1,   2,   2,    75.000,    50.000,     0.000,     0.000,     0.000,     0.000,   1,1,0
   157,'1 ',1,   2,   2,   123.500,   -24.300,     0.000,     0.000,     0.000,     0.000,   1,1,0
   159,'1 ',1,   2,   2,    33.000,    16.500,     0.000,     0.000,     0.000,     0.000,   1,1,0
   161,'1 ',1,   2,   2,    35.000,    15.000,     0.000,     0.000,     0.000,     0.000,   1,1,0
   162,'1 ',1,   2,   2,    85.000,    24.000,     0.000,     0.000,     0.000,     0.000,   1,1,0
   163,'1 ',1,   2,   2,     0.000,     0.400,     0.000,     0.000,     0.000,     0.000,   1,1,0
   167,'1 ',1,   2,   2,   299.900,    95.700,     0.000,     0.000,     0.000,     0.000,   1,1,0
   170,'1 ',1,   2,   2,   481.800,   205.000,     0.000,     0.000,     0.000,     0.000,   1,1,0
   171,'1 ',1,   2,   2,   763.600,   291.100,     0.000,     0.000,     0.000,     0.000,   1,1,0
   172,'1 ',1,   2,   2,    26.500,     0.000,     0.000,     0.000,     0.000,     0.000,   1,1,0
   173,'1 ',1,   2,   2,   163.500,    43.000,     0.000,     0.000,     0.000,     0.000,   1,1,0
   175,'1 ',1,   2,   2,   176.000,    83.000,     0.000,     0.000,     0.000,     0.000,   1,1,0
   176,'1 ',1,   2,   2,     5.000,     4.000,     0.000,     0.000,     0.000,     0.000,   1,1,0
   177,'1 ',1,   2,   2,    28.000,    12.000,     0.000,     0.000,     0.000,     0.000,   1,1,0
   178,'1 ',1,   2,   2,   427.400,   173.600,     0.000,     0.000,     0.000,     0.000,   1,1,0
   179,'1 ',1,   2,   2,    74.000,    29.000,     0.000,     0.000,     0.000,     0.000,   1,1,0
   180,'1 ',1,   2,   2,    69.500,    49.300,     0.000,     0.000,     0.000,     0.000,   1,1,0
   181,'1 ',1,   2,   2,    73.400,     0.000,     0.000,     0.000,     0.000,     0.000,   1,1,0
   182,'1 ',1,   2,   2,   240.700,    89.000,     0.000,     0.000,     0.000,     0.000,   1,1,0
   183,'1 ',1,   2,   2,    40.000,     4.000,     0.000,     0.000,     0.000,     0.000,   1,1,0
   184,'1 ',1,   2,   2,   136.800,    16.600,     0.000,     0.000,     0.000,     0.000,   1,1,0
   186,'1 ',1,   2,   2,    59.800,    24.300,     0.000,     0.000,     0.000,     0.000,   1,1,0
   187,'1 ',1,   2,   2,    59.800,    24.300,     0.000,     0.000,     0.000,     0.000,   1,1,0
   188,'1 ',1,   2,   2,   182.600,    43.600,     0.000,     0.000,     0.000,     0.000,   1,1,0
   189,'1 ',1,   3,   3,     7.000,     2.000,     0.000,     0.000,     0.000,     0.000,   1,1,0
   191,'1 ',1,   3,   3,   489.000,    53.000,     0.000,     0.000,     0.000,     0.000,   1,1,0
   192,'1 ',1,   3,   3,   800.000,    72.000,     0.000,     0.000,     0.000,     0.000,   1,1,0
   196,'1 ',1,   3,   3,    10.000,     3.000,     0.000,     0.000,     0.000,     0.000,   1,1,0
   197,'1 ',1,   3,   3,    43.000,    14.000,     0.000,     0.000,     0.000,     0.000,   1,1,0
   198,'1 ',1,   3,   3,    64.000,    21.000,     0.000,     0.000,     0.000,     0.000,   1,1,0
   199,'1 ',1,   3,   3,    35.000,    12.000,     0.000,     0.000,     0.000,     0.000,   1,1,0
   200,'1 ',1,   3,   3,    27.000,    12.000,     0.000,     0.000,     0.000,     0.000,   1,1,0
   201,'1 ',1,   1,   1,    41.000,    14.000,     0.000,     0.000,     0.000,     0.000,   1,1,0
   202,'1 ',1,   3,   3,    38.000,    13.000,     0.000,     0.000,     0.000,     0.000,   1,1,0
   203,'1 ',1,   3,   3,    42.000,    14.000,     0.000,     0.000,     0.000,     0.000,   1,1,0
   204,'1 ',1,   3,   3,    72.000,    24.000,     0.000,     0.000,     0.000,     0.000,   1,1,0
   205,'1 ',1,   3,   3,     0.000,    -5.000,     0.000,     0.000,     0.000,     0.000,   1,1,0
   206,'1 ',1,   3,   3,    12.000,     2.000,     0.000,     0.000,     0.000,     0.000,   1,1,0
   207,'1 ',1,   1,   1,   -21.000,   -14.200,     0.000,     0.000,     0.000,     0.000,   1,1,0
   208,'1 ',1,   3,   3,     7.000,     2.000,     0.000,     0.000,     0.000,     0.000,   1,1,0
   209,'1 ',1,   3,   3,    38.000,    13.000,     0.000,     0.000,     0.000,     0.000,   1,1,0
   211,'1 ',1,   3,   3,    96.000,     7.000,     0.000,     0.000,     0.000,     0.000,   1,1,0
   214,'1 ',1,   3,   3,    22.000,    16.000,     0.000,     0.000,     0.000,     0.000,   1,1,0
   215,'1 ',1,   3,   3,    47.000,    26.000,     0.000,     0.000,     0.000,     0.000,   1,1,0
   216,'1 ',1,   3,   3,   176.000,   105.000,     0.000,     0.000,     0.000,     0.000,   1,1,0
   217,'1 ',1,   3,   3,   100.000,    75.000,     0.000,     0.000,     0.000,     0.000,   1,1,0
   218,'1 ',1,   3,   3,   131.000,    96.000,     0.000,     0.000,     0.000,     0.000,   1,1,0
   220,'1 ',1,   3,   3,   285.000,   100.000,     0.000,     0.000,     0.000,     0.000,   1,1,0
   221,'1 ',1,   3,   3,   171.000,    70.000,     0.000,     0.000,     0.000,     0.000,   1,1,0
   222,'1 ',1,   3,   3,   328.000,   188.000,     0.000,     0.000,     0.000,     0.000,   1,1,0
   223,'1 ',1,   3,   3,   428.000,   232.000,     0.000,     0.000,     0.000,     0.000,   1,1,0
   224,'1 ',1,   3,   3,   173.000,    99.000,     0.000,     0.000,     0.000,     0.000,   1,1,0
   225,'1 ',1,   3,   3,   410.000,    40.000,     0.000,     0.000,     0.000,     0.000,   1,1,0
   227,'1 ',1,   3,   3,   538.000,   369.000,     0.000,     0.000,     0.000,     0.000,   1,1,0
   228,'1 ',1,   3,   3,   223.000,   148.000,     0.000,     0.000,     0.000,     0.000,   1,1,0
   229,'1 ',1,   3,   3,    96.000,    46.000,     0.000,     0.000,     0.000,     0.000,   1,1,0
   231,'1 ',1,   3,   3,   159.000,   107.000,     0.000,     0.000,     0.000,     0.000,   1,1,0
   232,'1 ',1,   3,   3,   448.000,   143.000,     0.000,     0.000,     0.000,     0.000,   1,1,0
   233,'1 ',1,   3,   3,   404.000,   212.000,     0.000,     0.000,     0.000,     0.000,   1,1,0
   234,'1 ',1,   3,   3,   572.000,   244.000,     0.000,     0.000,     0.000,     0.000,   1,1,0
   235,'1 ',1,   3,   3,   269.000,   157.000,     0.000,     0.000,     0.000,     0.000,   1,1,0
   238,'1 ',1,   3,   3,   255.000,   149.000,     0.000,     0.000,     0.000,     0.000,   1,1,0
   243,'1 ',1,   3,   3,     8.000,     3.000,     0.000,     0.000,     0.000,     0.000,   1,1,0
   245,'1 ',1,   3,   3,    61.000,    30.000,     0.000,     0.000,     0.000,     0.000,   1,1,0
   246,'1 ',1,   3,   3,    77.000,    33.000,     0.000,     0.000,     0.000,     0.000,   1,1,0
   247,'1 ',1,   3,   3,    61.000,    30.000,     0.000,     0.000,     0.000,     0.000,   1,1,0
   248,'1 ',1,   3,   3,    29.000,    14.000,     0.000,     0.000,     0.000,     0.000,   1,1,0
   249,'1 ',1,   3,   3,    29.000,    14.000,     0.000,     0.000,     0.000,     0.000,   1,1,0
   250,'1 ',1,   3,   3,   -23.000,   -17.000,     0.000,     0.000,     0.000,     0.000,   1,1,0
   281,'1 ',1,   3,   3,   -33.100,   -29.400,     0.000,     0.000,     0.000,     0.000,   1,1,0
   319,'1 ',1,   1,   1,   115.800,   -24.000,     0.000,     0.000,     0.000,     0.000,   1,1,0
   320,'1 ',1,   1,   1,     2.400,   -12.600,     0.000,     0.000,     0.000,     0.000,   1,1,0
   322,'1 ',1,   1,   1,     2.400,    -3.900,     0.000,     0.000,     0.000,     0.000,   1,1,0
   323,'1 ',1,   1,   1,   -14.900,    26.500,     0.000,     0.000,     0.000,     0.000,   1,1,0
   324,'1 ',1,   1,   1,    24.700,    -1.200,     0.000,     0.000,     0.000,     0.000,   1,1,0
   526,'1 ',1,   1,   1,   145.300,   -34.900,     0.000,     0.000,     0.000,     0.000,   1,1,0
   528,'1 ',1,   1,   1,    28.100,   -20.500,     0.000,     0.000,     0.000,     0.000,   1,1,0
   531,'1 ',1,   1,   1,    14.000,     2.500,     0.000,     0.000,     0.000,     0.000,   1,1,0
   552,'1 ',1,   1,   1,   -11.100,    -1.400,     0.000,     0.000,     0.000,     0.000,   1,1,0
   562,'1 ',1,   1,   1,    50.500,    17.400,     0.000,     0.000,     0.000,     0.000,   1,1,0
   609,'1 ',1,   1,   1,    29.600,     0.600,     0.000,     0.000,     0.000,     0.000,   1,1,0
   664,'1 ',1,   3,   3,  -113.700,    76.700,     0.000,     0.000,     0.000,     0.000,   1,1,0
  1190,'1 ',1,   1,   1,   100.310,    29.170,     0.000,     0.000,     0.000,     0.000,   1,1,0
  1200,'1 ',1,   1,   1,  -100.000,    34.170,     0.000,     0.000,     0.000,     0.000,   1,1,0
  9003,'1 ',1,   1,   9,     2.710,     0.940,     0.000,     0.000,     0.000,     0.000,   1,1,0
  9004,'1 ',1,   1,   9,     0.860,     0.280,     0.000,     0.000,     0.000,     0.000,   1,1,0
  9021,'1 ',1,   1,   9,     4.750,     1.560,     0.000,     0.000,     0.000,     0.000,   1,1,0
  9022,'1 ',1,   1,   9,     1.530,     0.530,     0.000,     0.000,     0.000,     0.000,   1,1,0
  9024,'1 ',1,   1,   9,     1.350,     0.470,     0.000,     0.000,     0.000,     0.000,   1,1,0
  9025,'1 ',1,   1,   9,     0.450,     0.160,     0.000,     0.000,     0.000,     0.000,   1,1,0
  9026,'1 ',1,   1,   9,     0.450,     0.160,     0.000,     0.000,     0.000,     0.000,   1,1,0
  9031,'1 ',1,   1,   9,     1.840,     0.640,     0.000,     0.000,     0.000,     0.000,   1,1,0
  9032,'1 ',1,   1,   9,     1.390,     0.480,     0.000,     0.000,     0.000,     0.000,   1,1,0
  9033,'1 ',1,   1,   9,     1.890,     0.650,     0.000,     0.000,     0.000,     0.000,   1,1,0
  9034,'1 ',1,   1,   9,     1.550,     0.540,     0.000,     0.000,     0.000,     0.000,   1,1,0
  9035,'1 ',1,   1,   9,     1.660,     0.580,     0.000,     0.000,     0.000,     0.000,   1,1,0
  9036,'1 ',1,   1,   9,     3.030,     1.000,     0.000,     0.000,     0.000,     0.000,   1,1,0
  9037,'1 ',1,   1,   9,     1.860,     0.640,     0.000,     0.000,     0.000,     0.000,   1,1,0
  9038,'1 ',1,   1,   9,     2.580,     0.890,     0.000,     0.000,     0.000,     0.000,   1,1,0
  9041,'1 ',1,   1,   9,     1.010,     0.350,     0.000,     0.000,     0.000,     0.000,   1,1,0
  9042,'1 ',1,   1,   9,     0.810,     0.280,     0.000,     0.000,     0.000,     0.000,   1,1,0
  9043,'1 ',1,   1,   9,     1.600,     0.520,     0.000,     0.000,     0.000,     0.000,   1,1,0
  9052,'1 ',1,   1,   9,    30.000,    23.000,     0.000,     0.000,     0.000,     0.000,   1,1,0
  9071,'1 ',1,   1,   9,     1.020,     0.350,     0.000,     0.000,     0.000,     0.000,   1,1,0
  9072,'1 ',1,   1,   9,     1.020,     0.350,     0.000,     0.000,     0.000,     0.000,   1,1,0
  9121,'1 ',1,   1,   9,     3.800,     1.250,     0.000,     0.000,     0.000,     0.000,   1,1,0
  9533,'1 ',1,   1,   9,     1.190,     0.410,     0.000,     0.000,     0.000,     0.000,   1,1,0
0 / END OF LOAD DATA, BEGIN FIXED SHUNT DATA
   117,'1 ',1,     0.000,   325.000
   120,'1 ',1,     0.000,    55.000
   154,'1 ',1,     0.000,    34.500
   164,'1 ',1,     0.000,  -212.000
   166,'1 ',1,     0.000,  -103.000
   173,'1 ',1,     0.000,    53.000
   179,'1 ',1,     0.000,    45.000
   190,'1 ',1,     0.000,  -150.000
   231,'1 ',1,     0.000,  -300.000
   238,'1 ',1,     0.000,  -150.000
   240,'1 ',1,     0.000,  -140.000
   248,'1 ',1,     0.000,    45.600
  9003,'1 ',1,     0.140,     2.400
  9022,'1 ',1,     0.080,     0.000
  9024,'1 ',1,     0.070,     0.000
  9025,'1 ',1,     0.020,     0.000
  9026,'1 ',1,     0.020,     0.000
  9031,'1 ',1,     0.100,     0.000
  9032,'1 ',1,     0.070,     0.000
  9033,'1 ',1,     0.100,     0.000
  9034,'1 ',1,     0.080,     1.720
  9035,'1 ',1,     0.090,     0.000
  9037,'1 ',1,     0.100,     0.000
  9038,'1 ',1,     0.140,     0.000
  9041,'1 ',1,     0.050,     0.000
  9042,'1 ',1,     0.040,     0.000
  9071,'1 ',1,     0.050,     0.000
  9072,'1 ',1,     0.050,     0.000
  9533,'1 ',1,     0.100,     0.000
0 / END OF FIXED SHUNT DATA, BEGIN GENERATOR DATA
 10000,'1 ',    -5.000,    10.000,    10.000,   -10.000,1.01530,     0,    25.000, 1.40000E-3, 1.20000E-1, 0.00000E+0, 0.00000E+0,1.00000,1,  100.0,  9999.000, -9999.000,   1,1.0000
 10001,'1 ',    -5.000,    20.000,    20.000,   -20.000,1.02050,     0,    25.000, 1.40000E-3, 1.20000E-1, 0.00000E+0, 0.00000E+0,1.00000,1,  100.0,  9999.000, -9999.000,   1,1.0000
 10002,'1 ',   -10.000,    20.000,    20.000,   -20.000,1.00100,     0,    25.000, 1.40000E-3, 1.20000E-1, 0.00000E+0, 0.00000E+0,1.00000,1,  100.0,  9999.000, -9999.000,   1,1.0000
 10003,'1 ',     0.000,    24.483,    25.000,   -25.000,0.95830,     0,    25.000, 1.40000E-3, 1.20000E-1, 0.00000E+0, 0.00000E+0,1.00000,1,  100.0,  9999.000, -9999.000,   1,1.0000
 10004,'1 ',     0.000,    35.000,    35.000,    12.000,0.96320,     0,    25.000, 1.40000E-3, 1.20000E-1, 0.00000E+0, 0.00000E+0,1.00000,1,  100.0,  9999.000, -9999.000,   1,1.0000
 10005,'1 ',   375.000,   133.255,   240.000,  -240.000,1.02500,     0,   835.000, 1.90000E-3, 3.39000E-1, 0.00000E+0, 0.00000E+0,1.00000,1,  100.0,  9999.000, -9999.000,   1,1.0000
 10006,'1 ',   155.000,    45.467,    96.000,   -11.000,1.05200,     0,   270.000, 1.60000E-3, 1.85000E-1, 0.00000E+0, 0.00000E+0,1.00000,1,  100.0,  9999.000, -9999.000,   1,1.0000
 10007,'1 ',   290.000,    31.827,   153.000,  -153.000,1.05200,     0,   410.000, 1.90000E-3, 2.28400E-1, 0.00000E+0, 0.00000E+0,1.00000,1,  100.0,  9999.000, -9999.000,   1,1.0000
 10008,'1 ',    68.000,   -10.264,    56.000,   -30.000,1.00000,     0,   125.000, 4.00000E-3, 1.34000E-1, 0.00000E+0, 0.00000E+0,1.00000,1,  100.0,  9999.000, -9999.000,   1,1.0000
 10009,'1 ',   117.000,    21.592,    77.000,   -24.000,0.99000,     0,   270.000, 1.60000E-3, 1.85000E-1, 0.00000E+0, 0.00000E+0,1.00000,1,  100.0,  9999.000, -9999.000,   1,1.0000
 10010,'1 ',  1930.000,  1262.333,  1500.000,  -500.000,1.04350,     0,   911.000, 1.00000E-3, 1.93000E-1, 0.00000E+0, 0.00000E+0,1.00000,1,  100.0,  9999.000, -9999.000,   1,1.0000
 10011,'1 ',   240.000,   120.000,   120.000,   -60.000,1.02330,     0,   410.000, 1.90000E-3, 2.28400E-1, 0.00000E+0, 0.00000E+0,1.00000,1,  100.0,  9999.000, -9999.000,   1,1.0000
 10012,'1 ',     0.000,   200.000,   200.000,   -25.000,1.01030,     0,    25.000, 1.40000E-3, 1.20000E-1, 0.00000E+0, 0.00000E+0,1.00000,1,  100.0,  9999.000, -9999.000,   1,1.0000
 10013,'1 ',  -925.030,   350.000,   350.000,  -125.000,1.05500,     0,   911.000, 1.00000E-3, 1.93000E-1, 0.00000E+0, 0.00000E+0,1.00000,1,  100.0,  9999.000, -9999.000,   1,1.0000
 10014,'1 ',   281.000,    69.655,    75.000,   -50.000,1.05100,     0,   410.000, 1.90000E-3, 2.28400E-1, 0.00000E+0, 0.00000E+0,1.00000,1,  100.0,  9999.000, -9999.000,   1,1.0000
 10015,'1 ',   696.000,   125.170,   300.000,  -100.000,1.04350,     0,   911.000, 1.00000E-3, 1.93000E-1, 0.00000E+0, 0.00000E+0,1.00000,1,  100.0,  9999.000, -9999.000,   1,1.0000
 10016,'1 ',    84.000,    35.000,    35.000,   -15.000,1.05280,     0,   125.000, 4.00000E-3, 1.34000E-1, 0.00000E+0, 0.00000E+0,1.00000,1,  100.0,  9999.000, -9999.000,   1,1.0000
 10017,'1 ',   217.000,   -47.781,   100.000,   -50.000,1.05280,     0,   410.000, 1.90000E-3, 2.28400E-1, 0.00000E+0, 0.00000E+0,1.00000,1,  100.0,  9999.000, -9999.000,   1,1.0000
 10018,'1 ',   103.000,    50.000,    50.000,   -25.000,1.07350,     0,   270.000, 1.60000E-3, 1.85000E-1, 0.00000E+0, 0.00000E+0,1.00000,1,  100.0,  9999.000, -9999.000,   1,1.0000
 10019,'1 ',   372.000,   -49.183,   175.000,   -50.000,1.05350,     0,   835.000, 1.90000E-3, 3.39000E-1, 0.00000E+0, 0.00000E+0,1.00000,1,  100.0,  9999.000, -9999.000,   1,1.0000
 10020,'1 ',   216.000,   -18.807,    90.000,   -50.000,1.04350,     0,   410.000, 1.90000E-3, 2.28400E-1, 0.00000E+0, 0.00000E+0,1.00000,1,  100.0,  9999.000, -9999.000,   1,1.0000
 10021,'1 ',     0.000,    15.000,    15.000,   -10.000,0.96300,     0,    25.000, 1.40000E-3, 1.20000E-1, 0.00000E+0, 0.00000E+0,1.00000,1,  100.0,  9999.000, -9999.000,   1,1.0000
 10022,'1 ',   205.000,    90.000,    90.000,   -40.000,0.92900,     0,   410.000, 1.90000E-3, 2.28400E-1, 0.00000E+0, 0.00000E+0,1.00000,1,  100.0,  9999.000, -9999.000,   1,1.0000
 10023,'1 ',     0.000,   150.000,   150.000,   -50.000,0.98290,     0,    25.000, 1.40000E-3, 1.20000E-1, 0.00000E+0, 0.00000E+0,1.00000,1,  100.0,  9999.000, -9999.000,   1,1.0000
 10024,'1 ',   228.000,    40.313,    90.000,   -45.000,1.05220,     0,   410.000, 1.90000E-3, 2.28400E-1, 0.00000E+0, 0.00000E+0,1.00000,1,  100.0,  9999.000, -9999.000,   1,1.0000
 10025,'1 ',    84.000,    35.000,    35.000,   -15.000,1.00770,     0,   270.000, 1.60000E-3, 1.85000E-1, 0.00000E+0, 0.00000E+0,1.00000,1,  100.0,  9999.000, -9999.000,   1,1.0000
 10026,'1 ',   200.000,    50.173,    80.000,   -50.000,1.05220,     0,   410.000, 1.90000E-3, 2.28400E-1, 0.00000E+0, 0.00000E+0,1.00000,1,  100.0,  9999.000, -9999.000,   1,1.0000
 10027,'1 ',  1200.000,   315.635,   400.000,  -100.000,1.06500,     0,   911.000, 1.00000E-3, 1.93000E-1, 0.00000E+0, 0.00000E+0,1.00000,1,  100.0,  9999.000, -9999.000,   1,1.0000
 10028,'1 ',  1200.000,   392.536,   400.000,  -100.000,1.06500,     0,   911.000, 1.00000E-3, 1.93000E-1, 0.00000E+0, 0.00000E+0,1.00000,1,  100.0,  9999.000, -9999.000,   1,1.0000
 10029,'1 ',   475.000,   -51.023,   300.000,  -300.000,1.05510,     0,   835.000, 1.90000E-3, 3.39000E-1, 0.00000E+0, 0.00000E+0,1.00000,1,  100.0,  9999.000, -9999.000,   1,1.0000
 10030,'1 ',  1973.000,   689.955,  1000.000, -1000.000,1.04350,     0,   911.000, 1.00000E-3, 1.93000E-1, 0.00000E+0, 0.00000E+0,1.00000,1,  100.0,  9999.000, -9999.000,   1,1.0000
 10031,'1 ',   424.000,   101.339,   260.000,  -260.000,1.01500,     0,   835.000, 1.90000E-3, 3.39000E-1, 0.00000E+0, 0.00000E+0,1.00000,1,  100.0,  9999.000, -9999.000,   1,1.0000
 10032,'1 ',   272.000,    44.138,   150.000,  -150.000,1.01000,     0,   512.000, 4.00000E-3, 2.00000E-1, 0.00000E+0, 0.00000E+0,1.00000,1,  100.0,  9999.000, -9999.000,   1,1.0000
 10033,'1 ',   100.000,    37.368,    60.000,   -60.000,1.00800,     0,   270.000, 1.60000E-3, 1.85000E-1, 0.00000E+0, 0.00000E+0,1.00000,1,  100.0,  9999.000, -9999.000,   1,1.0000
 10034,'1 ',   450.000,   168.751,   320.000,  -320.000,1.00000,     0,   835.000, 1.90000E-3, 3.39000E-1, 0.00000E+0, 0.00000E+0,1.00000,1,  100.0,  9999.000, -9999.000,   1,1.0000
 10035,'1 ',   250.000,   143.999,   300.000,  -300.000,1.05000,     0,   410.000, 1.90000E-3, 2.28400E-1, 0.00000E+0, 0.00000E+0,1.00000,1,  100.0,  9999.000, -9999.000,   1,1.0000
 10036,'1 ',   303.000,   254.313,   300.000,  -300.000,1.00000,     0,   512.000, 4.00000E-3, 2.00000E-1, 0.00000E+0, 0.00000E+0,1.00000,1,  100.0,  9999.000, -9999.000,   1,1.0000
 10037,'1 ',   345.000,    42.858,   250.000,  -250.000,1.04000,     0,   835.000, 1.90000E-3, 3.39000E-1, 0.00000E+0, 0.00000E+0,1.00000,1,  100.0,  9999.000, -9999.000,   1,1.0000
 10038,'1 ',   300.000,   133.115,   500.000,  -500.000,1.00000,     0,   512.000, 4.00000E-3, 2.00000E-1, 0.00000E+0, 0.00000E+0,1.00000,1,  100.0,  9999.000, -9999.000,   1,1.0000
 10039,'1 ',   600.000,   300.000,   300.000,  -300.000,1.01650,     0,   911.000, 1.00000E-3, 1.93000E-1, 0.00000E+0, 0.00000E+0,1.00000,1,  100.0,  9999.000, -9999.000,   1,1.0000
 10040,'1 ',   250.000,   164.456,   200.000,  -200.000,1.01000,     0,   410.000, 1.90000E-3, 2.28400E-1, 0.00000E+0, 0.00000E+0,1.00000,1,  100.0,  9999.000, -9999.000,   1,1.0000
 10041,'1 ',   550.000,    68.472,   400.000,  -400.000,1.00000,     0,   911.000, 1.00000E-3, 1.93000E-1, 0.00000E+0, 0.00000E+0,1.00000,1,  100.0,  9999.000, -9999.000,   1,1.0000
 10042,'1 ',   574.780,   -32.672,   600.000,  -600.000,1.05000,     0,   911.000, 1.00000E-3, 1.93000E-1, 0.00000E+0, 0.00000E+0,1.00000,1,  100.0,  9999.000, -9999.000,   1,1.0000
 10043,'1 ',   170.000,    52.395,   100.000,    40.000,0.99300,     0,   410.000, 1.90000E-3, 2.28400E-1, 0.00000E+0, 0.00000E+0,1.00000,1,  100.0,  9999.000, -9999.000,   1,1.0000
 10044,'1 ',    84.000,    52.325,    80.000,    40.000,1.01000,     0,   270.000, 1.60000E-3, 1.85000E-1, 0.00000E+0, 0.00000E+0,1.00000,1,  100.0,  9999.000, -9999.000,   1,1.0000
 10045,'1 ',   467.000,   146.688,   210.000,  -210.000,1.05070,     0,   835.000, 1.90000E-3, 3.39000E-1, 0.00000E+0, 0.00000E+0,1.00000,1,  100.0,  9999.000, -9999.000,   1,1.0000
 10046,'1 ',   623.000,   102.061,   280.000,  -280.000,1.05070,     0,   911.000, 1.00000E-3, 1.93000E-1, 0.00000E+0, 0.00000E+0,1.00000,1,  100.0,  9999.000, -9999.000,   1,1.0000
 10047,'1 ',  1210.000,   420.000,   420.000,  -420.000,1.03230,     0,   911.000, 1.00000E-3, 1.93000E-1, 0.00000E+0, 0.00000E+0,1.00000,1,  100.0,  9999.000, -9999.000,   1,1.0000
 10048,'1 ',   234.000,    56.175,   100.000,  -100.000,1.01450,     0,   410.000, 1.90000E-3, 2.28400E-1, 0.00000E+0, 0.00000E+0,1.00000,1,  100.0,  9999.000, -9999.000,   1,1.0000
 10049,'1 ',   372.000,   207.187,   224.000,  -224.000,1.05070,     0,   835.000, 1.90000E-3, 3.39000E-1, 0.00000E+0, 0.00000E+0,1.00000,1,  100.0,  9999.000, -9999.000,   1,1.0000
 10050,'1 ',   330.000,   350.000,   350.000,     0.000,1.05070,     0,   835.000, 1.90000E-3, 3.39000E-1, 0.00000E+0, 0.00000E+0,1.00000,1,  100.0,  9999.000, -9999.000,   1,1.0000
 10051,'1 ',   185.000,     8.051,   120.000,     0.000,1.05070,     0,   410.000, 1.90000E-3, 2.28400E-1, 0.00000E+0, 0.00000E+0,1.00000,1,  100.0,  9999.000, -9999.000,   1,1.0000
 10052,'1 ',   410.000,   109.180,   224.000,  -224.000,1.02900,     0,   835.000, 1.90000E-3, 3.39000E-1, 0.00000E+0, 0.00000E+0,1.00000,1,  100.0,  9999.000, -9999.000,   1,1.0000
 10053,'1 ',   500.000,   158.296,   200.000,  -200.000,1.05000,     0,   835.000, 1.90000E-3, 3.39000E-1, 0.00000E+0, 0.00000E+0,1.00000,1,  100.0,  9999.000, -9999.000,   1,1.0000
 10054,'1 ',    37.000,    41.621,    42.000,     0.000,1.01450,     0,   125.000, 4.00000E-3, 1.34000E-1, 0.00000E+0, 0.00000E+0,1.00000,1,  100.0,  9999.000, -9999.000,   1,1.0000
 10055,'1 ',   460.906,    40.747,     0.000,     0.000,1.05070,     0,   835.000, 1.90000E-3, 3.39000E-1, 0.00000E+0, 0.00000E+0,1.00000,1,  100.0,  9999.000, -9999.000,   1,1.0000
 10056,'1 ',    45.000,    24.892,    25.000,     0.000,0.99670,     0,   125.000, 4.00000E-3, 1.34000E-1, 0.00000E+0, 0.00000E+0,1.00000,1,  100.0,  9999.000, -9999.000,   1,1.0000
 10057,'1 ',   165.000,    89.284,    90.000,   -90.000,1.02120,     0,   410.000, 1.90000E-3, 2.28400E-1, 0.00000E+0, 0.00000E+0,1.00000,1,  100.0,  9999.000, -9999.000,   1,1.0000
 10058,'1 ',   400.000,   120.999,   150.000,  -150.000,1.01450,     0,   835.000, 1.90000E-3, 3.39000E-1, 0.00000E+0, 0.00000E+0,1.00000,1,  100.0,  9999.000, -9999.000,   1,1.0000
 10059,'1 ',   400.000,   147.439,   150.000,     0.000,1.00170,     0,   835.000, 1.90000E-3, 3.39000E-1, 0.00000E+0, 0.00000E+0,1.00000,1,  100.0,  9999.000, -9999.000,   1,1.0000
 10060,'1 ',   116.000,    87.000,    87.000,     0.000,0.98930,     0,   270.000, 1.60000E-3, 1.85000E-1, 0.00000E+0, 0.00000E+0,1.00000,1,  100.0,  9999.000, -9999.000,   1,1.0000
 10061,'1 ',  1292.000,   358.150,   600.000,  -100.000,1.05070,     0,   911.000, 1.00000E-3, 1.93000E-1, 0.00000E+0, 0.00000E+0,1.00000,1,  100.0,  9999.000, -9999.000,   1,1.0000
 10062,'1 ',   700.000,   292.009,   325.000,  -125.000,1.05070,     0,   911.000, 1.00000E-3, 1.93000E-1, 0.00000E+0, 0.00000E+0,1.00000,1,  100.0,  9999.000, -9999.000,   1,1.0000
 10063,'1 ',   553.000,   142.044,   300.000,  -200.000,1.01450,     0,   911.000, 1.00000E-3, 1.93000E-1, 0.00000E+0, 0.00000E+0,1.00000,1,  100.0,  9999.000, -9999.000,   1,1.0000
 10064,'1 ',    -4.200,     2.000,     2.000,    -2.000,0.99450,     0,    25.000, 1.40000E-3, 1.20000E-1, 0.00000E+0, 0.00000E+0,1.00000,1,  100.0,  9999.000, -9999.000,   1,1.0000
 10065,'1 ',   -35.810,    15.432,    17.350,   -17.350,1.00000,     0,   125.000, 4.00000E-3, 1.34000E-1, 0.00000E+0, 0.00000E+0,1.00000,1,  100.0,  9999.000, -9999.000,   1,1.0000
 10066,'1 ',   -26.480,    11.299,    12.830,   -12.800,1.00000,     0,   125.000, 4.00000E-3, 1.34000E-1, 0.00000E+0, 0.00000E+0,1.00000,1,  100.0,  9999.000, -9999.000,   1,1.0000
 10067,'1 ',    50.000,    19.775,    38.000,   -38.000,1.00000,     0,   125.000, 4.00000E-3, 1.34000E-1, 0.00000E+0, 0.00000E+0,1.00000,1,  100.0,  9999.000, -9999.000,   1,1.0000
 10068,'1 ',     8.000,     3.649,     6.000,    -6.000,1.00000,     0,    25.000, 1.40000E-3, 1.20000E-1, 0.00000E+0, 0.00000E+0,1.00000,1,  100.0,  9999.000, -9999.000,   1,1.0000
0 / END OF GENERATOR DATA, BEGIN BRANCH DATA
     1,     5,'1 ', 1.00000E-3, 6.00000E-3,   0.00000,    0.00,    0.00,    0.00,  0.00000,  0.00000,  0.00000,  0.00000,1,1,   0.00,   1,1.0000
     2,     6,'1 ', 1.00000E-3, 9.00000E-3,   0.00000,    0.00,    0.00,    0.00,  0.00000,  0.00000,  0.00000,  0.00000,1,1,   0.00,   1,1.0000
     2,     8,'1 ', 6.00000E-3, 2.70000E-2,   0.05400,    0.00,    0.00,    0.00,  0.00000,  0.00000,  0.00000,  0.00000,1,1,   0.00,   1,1.0000
     3,     7,'1 ', 0.00000E+0, 3.00000E-3,   0.00000,    0.00,    0.00,    0.00,  0.00000,  0.00000,  0.00000,  0.00000,1,1,   0.00,   1,1.0000
     3,    19,'1 ', 8.00000E-3, 6.90000E-2,   0.13900,    0.00,    0.00,    0.00,  0.00000,  0.00000,  0.00000,  0.00000,1,1,   0.00,   1,1.0000
     3,   150,'1 ', 1.00000E-3, 7.00000E-3,   0.00000,    0.00,    0.00,    0.00,  0.00000,  0.00000,  0.00000,  0.00000,1,1,   0.00,   1,1.0000
     4,    16,'1 ', 2.00000E-3, 1.90000E-2,   1.12700,    0.00,    0.00,    0.00,  0.00000,  0.00000,  0.00000,  0.00000,1,1,   0.00,   1,1.0000
     5,     9,'1 ', 6.00000E-3, 2.90000E-2,   0.01800,    0.00,    0.00,    0.00,  0.00000,  0.00000,  0.00000,  0.00000,1,1,   0.00,   1,1.0000
     7,    12,'1 ', 1.00000E-3, 9.00000E-3,   0.07000,    0.00,    0.00,    0.00,  0.00000,  0.00000,  0.00000,  0.00000,1,1,   0.00,   1,1.0000
     7,   131,'1 ', 1.00000E-3, 7.00000E-3,   0.01400,    0.00,    0.00,    0.00,  0.00000,  0.00000,  0.00000,  0.00000,1,1,   0.00,   1,1.0000
     8,    11,'1 ', 1.30000E-2, 5.95000E-2,   0.03300,    0.00,    0.00,    0.00,  0.00000,  0.00000,  0.00000,  0.00000,1,1,   0.00,   1,1.0000
     8,    14,'1 ', 1.30000E-2, 4.20000E-2,   0.08100,    0.00,    0.00,    0.00,  0.00000,  0.00000,  0.00000,  0.00000,1,1,   0.00,   1,1.0000
     9,    11,'1 ', 6.00000E-3, 2.70000E-2,   0.01300,    0.00,    0.00,    0.00,  0.00000,  0.00000,  0.00000,  0.00000,1,1,   0.00,   1,1.0000
    11,    13,'1 ', 8.00000E-3, 3.40000E-2,   0.01800,    0.00,    0.00,    0.00,  0.00000,  0.00000,  0.00000,  0.00000,1,1,   0.00,   1,1.0000
    12,    21,'1 ', 2.00000E-3, 1.50000E-2,   0.11800,    0.00,    0.00,    0.00,  0.00000,  0.00000,  0.00000,  0.00000,1,1,   0.00,   1,1.0000
    13,    20,'1 ', 6.00000E-3, 3.40000E-2,   0.01600,    0.00,    0.00,    0.00,  0.00000,  0.00000,  0.00000,  0.00000,1,1,   0.00,   1,1.0000
    14,    15,'1 ', 1.40000E-2, 4.20000E-2,   0.09700,    0.00,    0.00,    0.00,  0.00000,  0.00000,  0.00000,  0.00000,1,1,   0.00,   1,1.0000
    15,    37,'1 ', 6.50000E-2, 2.48000E-1,   0.12100,    0.00,    0.00,    0.00,  0.00000,  0.00000,  0.00000,  0.00000,1,1,   0.00,   1,1.0000
    15,    89,'1 ', 9.90000E-2, 2.48000E-1,   0.03500,    0.00,    0.00,    0.00,  0.00000,  0.00000,  0.00000,  0.00000,1,1,   0.00,   1,1.0000
    15,    90,'1 ', 9.60000E-2, 3.63000E-1,   0.04800,    0.00,    0.00,    0.00,  0.00000,  0.00000,  0.00000,  0.00000,1,1,   0.00,   1,1.0000
    16,    42,'1 ', 2.00000E-3, 2.20000E-2,   1.28000,    0.00,    0.00,    0.00,  0.00000,  0.00000,  0.00000,  0.00000,1,1,   0.00,   1,1.0000
    19,    21,'1 ', 2.00000E-3, 1.80000E-2,   0.03600,    0.00,    0.00,    0.00,  0.00000,  0.00000,  0.00000,  0.00000,1,1,   0.00,   1,1.0000
    19,    87,'1 ', 1.30000E-2, 8.00000E-2,   0.15100,    0.00,    0.00,    0.00,  0.00000,  0.00000,  0.00000,  0.00000,1,1,   0.00,   1,1.0000
    20,    22,'1 ', 1.60000E-2, 3.30000E-2,   0.01500,    0.00,    0.00,    0.00,  0.00000,  0.00000,  0.00000,  0.00000,1,1,   0.00,   1,1.0000
    20,    27,'1 ', 6.90000E-2, 1.86000E-1,   0.09800,    0.00,    0.00,    0.00,  0.00000,  0.00000,  0.00000,  0.00000,1,1,   0.00,   1,1.0000
    21,    24,'1 ', 4.00000E-3, 3.40000E-2,   0.28000,    0.00,    0.00,    0.00,  0.00000,  0.00000,  0.00000,  0.00000,1,1,   0.00,   1,1.0000
    22,    23,'1 ', 5.20000E-2, 1.11000E-1,   0.05000,    0.00,    0.00,    0.00,  0.00000,  0.00000,  0.00000,  0.00000,1,1,   0.00,   1,1.0000
    23,    25,'1 ', 1.90000E-2, 3.90000E-2,   0.01800,    0.00,    0.00,    0.00,  0.00000,  0.00000,  0.00000,  0.00000,1,1,   0.00,   1,1.0000
    24,   319,'1 ', 7.00000E-3, 6.80000E-2,   0.13400,    0.00,    0.00,    0.00,  0.00000,  0.00000,  0.00000,  0.00000,1,1,   0.00,   1,1.0000
    25,    26,'1 ', 3.60000E-2, 7.10000E-2,   0.03400,    0.00,    0.00,    0.00,  0.00000,  0.00000,  0.00000,  0.00000,1,1,   0.00,   1,1.0000
    26,    27,'1 ', 4.50000E-2, 1.20000E-1,   0.06500,    0.00,    0.00,    0.00,  0.00000,  0.00000,  0.00000,  0.00000,1,1,   0.00,   1,1.0000
    26,   320,'1 ', 4.30000E-2, 1.30000E-1,   0.01400,    0.00,    0.00,    0.00,  0.00000,  0.00000,  0.00000,  0.00000,1,1,   0.00,   1,1.0000
    33,    34,'1 ', 0.00000E+0, 6.30000E-2,   0.00000,    0.00,    0.00,    0.00,  0.00000,  0.00000,  0.00000,  0.00000,1,1,   0.00,   1,1.0000
    33,    38,'1 ', 2.50000E-3, 1.20000E-2,   0.01300,    0.00,    0.00,    0.00,  0.00000,  0.00000,  0.00000,  0.00000,1,1,   0.00,   1,1.0000
    33,    40,'1 ', 6.00000E-3, 2.90000E-2,   0.02000,    0.00,    0.00,    0.00,  0.00000,  0.00000,  0.00000,  0.00000,1,1,   0.00,   1,1.0000
    33,    41,'1 ', 7.00000E-3, 4.30000E-2,   0.02600,    0.00,    0.00,    0.00,  0.00000,  0.00000,  0.00000,  0.00000,1,1,   0.00,   1,1.0000
    34,    42,'1 ', 1.00000E-3, 8.00000E-3,   0.04200,    0.00,    0.00,    0.00,  0.00000,  0.00000,  0.00000,  0.00000,1,1,   0.00,   1,1.0000
    35,    72,'1 ', 1.20000E-2, 6.00000E-2,   0.00800,    0.00,    0.00,    0.00,  0.00000,  0.00000,  0.00000,  0.00000,1,1,   0.00,   1,1.0000
    35,    76,'1 ', 6.00000E-3, 1.40000E-2,   0.00200,    0.00,    0.00,    0.00,  0.00000,  0.00000,  0.00000,  0.00000,1,1,   0.00,   1,1.0000
    35,    77,'1 ', 1.00000E-2, 2.90000E-2,   0.00300,    0.00,    0.00,    0.00,  0.00000,  0.00000,  0.00000,  0.00000,1,1,   0.00,   1,1.0000
    36,    88,'1 ', 4.00000E-3, 2.70000E-2,   0.04300,    0.00,    0.00,    0.00,  0.00000,  0.00000,  0.00000,  0.00000,1,1,   0.00,   1,1.0000
    37,    38,'1 ', 8.00000E-3, 4.70000E-2,   0.00800,    0.00,    0.00,    0.00,  0.00000,  0.00000,  0.00000,  0.00000,1,1,   0.00,   1,1.0000
    37,    40,'1 ', 2.20000E-2, 6.40000E-2,   0.00700,    0.00,    0.00,    0.00,  0.00000,  0.00000,  0.00000,  0.00000,1,1,   0.00,   1,1.0000
    37,    41,'1 ', 1.00000E-2, 3.60000E-2,   0.02000,    0.00,    0.00,    0.00,  0.00000,  0.00000,  0.00000,  0.00000,1,1,   0.00,   1,1.0000
    37,    49,'1 ', 1.70000E-2, 8.10000E-2,   0.04800,    0.00,    0.00,    0.00,  0.00000,  0.00000,  0.00000,  0.00000,1,1,   0.00,   1,1.0000
    37,    89,'1 ', 1.02000E-1, 2.54000E-1,   0.03300,    0.00,    0.00,    0.00,  0.00000,  0.00000,  0.00000,  0.00000,1,1,   0.00,   1,1.0000
    37,    90,'1 ', 4.70000E-2, 1.27000E-1,   0.01600,    0.00,    0.00,    0.00,  0.00000,  0.00000,  0.00000,  0.00000,1,1,   0.00,   1,1.0000
...